lab1
*SPICE Netlist generated by Advanced Sim server on 29.04.2021 18:08:46

*Schematic Netlist:

.SAVE 0


*Selected Circuit Analyses:
.TRAN 2E-8 5E-6 0 2E-8
.OP

.END
